8
Comment
H     1.185080000    -0.003838000     0.987524000
C     0.751621000    -0.022441000    -0.020839000
H     1.166929000     0.833015000    -0.569312000
H     1.115519000    -0.932892000    -0.514525000
C    -0.751587000     0.022496000     0.020891000
H    -1.166882000    -0.833372000     0.568699000
H    -1.115691000     0.932608000     0.515082000
H    -1.184988000     0.004424000    -0.987522000
