cyclobutane
     RDKit          3D

  4  4  0  0  0  0  0  0  0  0999 V2000
   -0.7372   -0.6322   -0.4324 C   0  0  0  0  0  0  0  0  0  0  0  0
   -0.4468    0.8555   -0.5229 C   0  0  0  0  0  0  0  0  0  0  0  0
    0.8515    0.5725    0.2205 C   0  0  0  0  0  0  0  0  0  0  0  0
    0.3326   -0.7959    0.6107 C   0  0  0  0  0  0  0  0  0  0  0  0
  1  2  1  0
  2  3  1  0
  3  4  1  0
  4  1  1  0
M  END

