cyclobutane
     RDKit          3D

 12 12  0  0  0  0  0  0  0  0999 V2000
    1.0256    0.2491   -0.0964 C   0  0  0  0  0  0  0  0  0  0  0  0
   -0.2041    0.9236    0.4320 C   0  0  0  0  0  0  0  0  0  0  0  0
   -1.0435   -0.2466   -0.0266 C   0  0  0  0  0  0  0  0  0  0  0  0
    0.2104   -0.9922   -0.3417 C   0  0  0  0  0  0  0  0  0  0  0  0
    1.4182    0.7667   -0.9782 H   0  0  0  0  0  0  0  0  0  0  0  0
    1.8181    0.1486    0.6820 H   0  0  0  0  0  0  0  0  0  0  0  0
   -0.1697    1.0826    1.5236 H   0  0  0  0  0  0  0  0  0  0  0  0
   -0.5336    1.8391   -0.1051 H   0  0  0  0  0  0  0  0  0  0  0  0
   -1.6809   -0.0600   -0.8987 H   0  0  0  0  0  0  0  0  0  0  0  0
   -1.6501   -0.6194    0.8220 H   0  0  0  0  0  0  0  0  0  0  0  0
    0.4659   -1.7768    0.3858 H   0  0  0  0  0  0  0  0  0  0  0  0
    0.3439   -1.3147   -1.3988 H   0  0  0  0  0  0  0  0  0  0  0  0
  1  2  1  0
  2  3  1  0
  3  4  1  0
  4  1  1  0
  1  5  1  0
  1  6  1  0
  2  7  1  0
  2  8  1  0
  3  9  1  0
  3 10  1  0
  4 11  1  0
  4 12  1  0
M  END

